.temp: no such command available in ngspice
Note: vinput: dc value used for op instead of transient time=0 value.

Note: No compatibility mode selected!


Circuit: twostage_opamp_netlist

Doing analysis at TEMP = 27.000000 and TNOM = 27.000000

Warning: toxe, toxp and dtox all given and toxe != toxp + dtox; dtox ignored.

Initial Transient Solution
--------------------------

Node                                   Voltage
----                                   -------
net4                                  0.765461
vdd                                        1.2
net5                                   1.19993
net2                                       0.9
net3                                  0.493362
net1                                       0.3
net7                                  0.366974
vss                                          0
net6                               2.22738e-05
net8                               2.22738e-05
vcm                                        0.6
aid                                       -0.6
ein2#branch                       -1.02896e-09
ein1#branch                        2.29076e-08
vss#branch                         4.91004e-05
vdd#branch                        -4.91004e-05
vinput#branch                                0
vicm#branch                        2.18786e-08

Note: vinput: dc value used for op instead of transient time=0 value.
Note: vinput: dc value used for op instead of transient time=0 value.
Note: vinput: dc value used for op instead of transient time=0 value.

No. of Data Rows : 656
Reset re-loads circuit twostage_opamp_netlist

Circuit: twostage_opamp_netlist

Doing analysis at TEMP = 27.000000 and TNOM = 27.000000

Warning: toxe, toxp and dtox all given and toxe != toxp + dtox; dtox ignored.

No. of Data Rows : 121
Reset re-loads circuit twostage_opamp_netlist

Circuit: twostage_opamp_netlist

Doing analysis at TEMP = 27.000000 and TNOM = 27.000000

Warning: toxe, toxp and dtox all given and toxe != toxp + dtox; dtox ignored.

No. of Data Rows : 91

No. of Data Rows : 1
Reset re-loads circuit twostage_opamp_netlist

Circuit: twostage_opamp_netlist

Doing analysis at TEMP = 27.000000 and TNOM = 27.000000

Warning: toxe, toxp and dtox all given and toxe != toxp + dtox; dtox ignored.

No. of Data Rows : 1
Note: Simulation executed from .control section 
