.temp: no such command available in ngspice
Note: vinput: dc value used for op instead of transient time=0 value.

Note: No compatibility mode selected!


Circuit: twostage_opamp_netlist

Doing analysis at TEMP = 27.000000 and TNOM = 27.000000

Warning: toxe, toxp and dtox all given and toxe != toxp + dtox; dtox ignored.

Initial Transient Solution
--------------------------

Node                                   Voltage
----                                   -------
net4                                  0.622958
vdd                                        1.2
net5                                   1.19997
net2                                       0.9
net3                                   0.44073
net1                                       0.3
net7                                  0.385104
vss                                          0
net6                               9.87542e-06
net8                               9.87542e-06
vcm                                        0.6
aid                                       -0.6
ein2#branch                       -2.69464e-09
ein1#branch                        2.34191e-08
vss#branch                         0.000100296
vdd#branch                        -0.000100296
vinput#branch                                0
vicm#branch                        2.07244e-08

Note: vinput: dc value used for op instead of transient time=0 value.
Note: Starting dynamic gmin stepping
Note: Dynamic gmin stepping completed
Note: vinput: dc value used for op instead of transient time=0 value.
Note: Starting dynamic gmin stepping
Note: Dynamic gmin stepping completed
Note: vinput: dc value used for op instead of transient time=0 value.
Note: Starting dynamic gmin stepping
Note: Dynamic gmin stepping completed

No. of Data Rows : 668
Reset re-loads circuit twostage_opamp_netlist

Circuit: twostage_opamp_netlist

Doing analysis at TEMP = 27.000000 and TNOM = 27.000000

Warning: toxe, toxp and dtox all given and toxe != toxp + dtox; dtox ignored.

No. of Data Rows : 121
Reset re-loads circuit twostage_opamp_netlist

Circuit: twostage_opamp_netlist

Doing analysis at TEMP = 27.000000 and TNOM = 27.000000

Warning: toxe, toxp and dtox all given and toxe != toxp + dtox; dtox ignored.

No. of Data Rows : 91

No. of Data Rows : 1
Reset re-loads circuit twostage_opamp_netlist

Circuit: twostage_opamp_netlist

Doing analysis at TEMP = 27.000000 and TNOM = 27.000000

Warning: toxe, toxp and dtox all given and toxe != toxp + dtox; dtox ignored.

No. of Data Rows : 1
Note: Simulation executed from .control section 
