.temp: no such command available in ngspice
Note: vinput: dc value used for op instead of transient time=0 value.

Note: No compatibility mode selected!


Circuit: twostage_opamp_netlist

Doing analysis at TEMP = 27.000000 and TNOM = 27.000000

Warning: toxe, toxp and dtox all given and toxe != toxp + dtox; dtox ignored.

Initial Transient Solution
--------------------------

Node                                   Voltage
----                                   -------
net4                                  0.844742
vdd                                        1.2
net5                                   1.19922
net2                                       0.9
net3                                  0.735611
net1                                       0.3
net7                                  0.380546
vss                                          0
net6                               2.62919e-06
net8                               2.62919e-06
vcm                                        0.6
aid                                       -0.6
ein2#branch                       -1.52314e-10
ein1#branch                        6.34246e-08
vss#branch                         3.27101e-05
vdd#branch                        -3.27101e-05
vinput#branch                                0
vicm#branch                        6.32723e-08

Note: vinput: dc value used for op instead of transient time=0 value.
Note: vinput: dc value used for op instead of transient time=0 value.
Note: vinput: dc value used for op instead of transient time=0 value.

No. of Data Rows : 644
Reset re-loads circuit twostage_opamp_netlist

Circuit: twostage_opamp_netlist

Doing analysis at TEMP = 27.000000 and TNOM = 27.000000

Warning: toxe, toxp and dtox all given and toxe != toxp + dtox; dtox ignored.

No. of Data Rows : 121
Reset re-loads circuit twostage_opamp_netlist

Circuit: twostage_opamp_netlist

Doing analysis at TEMP = 27.000000 and TNOM = 27.000000

Warning: toxe, toxp and dtox all given and toxe != toxp + dtox; dtox ignored.

No. of Data Rows : 91

No. of Data Rows : 1
Reset re-loads circuit twostage_opamp_netlist

Circuit: twostage_opamp_netlist

Doing analysis at TEMP = 27.000000 and TNOM = 27.000000

Warning: toxe, toxp and dtox all given and toxe != toxp + dtox; dtox ignored.

No. of Data Rows : 1
Note: Simulation executed from .control section 
